DEPTH = 30;
WIDTH = 16;
ADDRESS_RADIX = HEX;
DATA_RADIX = HEX;
CONTENT BEGIN
  0 : 2533;
  1 : 2434;
  2 : 2535;
  3 : 2636;
  4 : 2739;
  5 : 2838;
  6 : 2937;
  7 : 2837;
  8 : 2736;
  9 : 2735;
  A : 2734;
  B : 2733;
  C : 2732;
  D : 2733;
  E : 2733;
  F : 2633;
  10 : 2633;
  11 : 2533;
  12 : 2433;
  13 : 2333;
  14 : 2232;
  15 : 2331;
  16 : 2430;
  17 : 2531;
  18 : 2632;
  19 : 2732;
  1A : 2832;
  1B : 2932;
  1C : 2A32;
  1D : 2A32;
  1E : 2B32;
 

