DEPTH = 30;
WIDTH = 16;
ADDRESS_RADIX = HEX;
DATA_RADIX = HEX;
CONTENT BEGIN
  0 : 0500;
  1 : 0501;
  2 : 0502;
  3 : 0503;
  4 : 0504;
  5 : 0505;
  6 : 0506;
  7 : 0507;
  8 : 0508;
  9 : 0509;
  A : 0510;
  B : 0511;
  C : 0512;
  D : 0513;
  E : 0514;
  F : 0515;
  10 : 0516;
  11 : 0517;
  12 : 0518;
  13 : 0519;
  14 : 0520;
  15 : 0521;
  16 : 0522;
  17 : 0523;
  18 : 0524;
  19 : 0525;
  1A : 0526;
  1B : 0527;
  1C : 0528;
  1D : 0529;
END